@<TRIPOS>MOLECULE
*****
 12 11 0 0 0
SMALL
GASTEIGER

@<TRIPOS>ATOM
      1 C           1.0250   -0.0676   -0.0788 C.3     1  UNL1       -0.0632
      2 C           2.5426   -0.0379   -0.0734 C.3     1  UNL1       -0.0326
      3 C           3.0765    1.3719    0.1360 C.3     1  UNL1        0.0440
      4 O           4.4971    1.3558    0.1337 O.3     1  UNL1       -0.3950
      5 H           0.6647   -1.0896   -0.2308 H       1  UNL1        0.0230
      6 H           0.6236    0.5575   -0.8830 H       1  UNL1        0.0230
      7 H           0.6231    0.2965    0.8722 H       1  UNL1        0.0230
      8 H           2.9276   -0.4406   -1.0178 H       1  UNL1        0.0285
      9 H           2.9243   -0.6990    0.7140 H       1  UNL1        0.0285
     10 H           2.7351    1.7901    1.0883 H       1  UNL1        0.0557
     11 H           2.7454    2.0366   -0.6682 H       1  UNL1        0.0557
     12 H           4.7844    0.7844    0.8667 H       1  UNL1        0.2094
@<TRIPOS>BOND
     1     1     2    1
     2     2     3    1
     3     3     4    1
     4     1     5    1
     5     1     6    1
     6     1     7    1
     7     2     8    1
     8     2     9    1
     9     3    10    1
    10     3    11    1
    11     4    12    1
