@<TRIPOS>MOLECULE
*****
   12    11     1     0     0
SMALL
bcc


@<TRIPOS>ATOM
      1 C            1.0250    -0.0680    -0.0790 c3         1 UNL      -0.091100
      2 C1           2.5430    -0.0380    -0.0730 c3         1 UNL      -0.120400
      3 C2           3.0760     1.3720     0.1360 c3         1 UNL       0.126400
      4 O            4.4970     1.3560     0.1340 oh         1 UNL      -0.598800
      5 H            0.6650    -1.0900    -0.2310 hc         1 UNL       0.036033
      6 H1           0.6240     0.5570    -0.8830 hc         1 UNL       0.036033
      7 H2           0.6230     0.2960     0.8720 hc         1 UNL       0.036033
      8 H3           2.9280    -0.4410    -1.0180 hc         1 UNL       0.046200
      9 H4           2.9240    -0.6990     0.7140 hc         1 UNL       0.046200
     10 H5           2.7350     1.7900     1.0880 h1         1 UNL       0.044200
     11 H6           2.7450     2.0370    -0.6680 h1         1 UNL       0.044200
     12 H7           4.7840     0.7840     0.8670 ho         1 UNL       0.396000
@<TRIPOS>BOND
     1     1     2 1   
     2     2     3 1   
     3     3     4 1   
     4     1     5 1   
     5     1     6 1   
     6     1     7 1   
     7     2     8 1   
     8     2     9 1   
     9     3    10 1   
    10     3    11 1   
    11     4    12 1   
@<TRIPOS>SUBSTRUCTURE
     1 UNL         1 TEMP              0 ****  ****    0 ROOT
