@<TRIPOS>MOLECULE
*****
 43 42 0 0 0
SMALL
GASTEIGER

@<TRIPOS>ATOM
      1 C           1.0275   -0.0456    0.0728 C.3     1  UNL1       -0.0416
      2 C           2.5417   -0.0818    0.0540 C.3     1  UNL1        0.0449
      3 O           3.0274    0.9876    0.8616 O.3     1  UNL1       -0.3778
      4 C           4.4526    1.0122    0.8853 C.3     1  UNL1        0.0710
      5 C           4.9245    2.1670    1.7589 C.3     1  UNL1        0.0711
      6 O           6.3511    2.1824    1.7752 O.3     1  UNL1       -0.3752
      7 C           6.8484    3.2474    2.5825 C.3     1  UNL1        0.0711
      8 C           8.3702    3.2171    2.5628 C.3     1  UNL1        0.0711
      9 O           8.8666    4.2817    3.3704 O.3     1  UNL1       -0.3752
     10 C          10.2922    4.2976    3.3872 C.3     1  UNL1        0.0711
     11 C          10.7656    5.4509    4.2597 C.3     1  UNL1        0.0711
     12 O          12.1912    5.4689    4.2771 O.3     1  UNL1       -0.3752
     13 C          12.6867    6.5353    5.0839 C.3     1  UNL1        0.0711
     14 C          14.2087    6.5028    5.0655 C.3     1  UNL1        0.0710
     15 O          14.7161    7.5659    5.8692 O.3     1  UNL1       -0.3778
     16 C          16.1414    7.5731    5.8791 C.3     1  UNL1        0.0449
     17 C          16.6079    8.7235    6.7472 C.3     1  UNL1       -0.0416
     18 H           0.6114   -0.8527   -0.5365 H       1  UNL1        0.0252
     19 H           0.6602    0.9124   -0.3098 H       1  UNL1        0.0252
     20 H           0.6522   -0.1450    1.0966 H       1  UNL1        0.0252
     21 H           2.9049    0.0361   -0.9727 H       1  UNL1        0.0557
     22 H           2.8971   -1.0378    0.4541 H       1  UNL1        0.0557
     23 H           4.8452    1.1338   -0.1313 H       1  UNL1        0.0583
     24 H           4.8401    0.0664    1.2824 H       1  UNL1        0.0583
     25 H           4.5371    2.0474    2.7777 H       1  UNL1        0.0583
     26 H           4.5418    3.1155    1.3636 H       1  UNL1        0.0583
     27 H           6.4869    3.1411    3.6117 H       1  UNL1        0.0583
     28 H           6.4907    4.2105    2.1990 H       1  UNL1        0.0583
     29 H           8.7319    3.3240    1.5330 H       1  UNL1        0.0583
     30 H           8.7284    2.2536    2.9453 H       1  UNL1        0.0583
     31 H          10.6804    4.4172    2.3684 H       1  UNL1        0.0583
     32 H          10.6758    3.3491    3.7823 H       1  UNL1        0.0583
     33 H          10.3775    5.3303    5.2784 H       1  UNL1        0.0583
     34 H          10.3809    6.3989    3.8649 H       1  UNL1        0.0583
     35 H          12.3230    6.4297    6.1131 H       1  UNL1        0.0583
     36 H          12.3286    7.4975    4.6983 H       1  UNL1        0.0583
     37 H          14.5686    6.6048    4.0346 H       1  UNL1        0.0583
     38 H          14.5628    5.5383    5.4489 H       1  UNL1        0.0583
     39 H          16.5172    7.6999    4.8579 H       1  UNL1        0.0557
     40 H          16.5126    6.6253    6.2843 H       1  UNL1        0.0557
     41 H          16.2287    9.6756    6.3615 H       1  UNL1        0.0252
     42 H          17.6999    8.7660    6.7830 H       1  UNL1        0.0252
     43 H          16.2239    8.6171    7.7671 H       1  UNL1        0.0252
@<TRIPOS>BOND
     1     1     2    1
     2     2     3    1
     3     3     4    1
     4     4     5    1
     5     5     6    1
     6     6     7    1
     7     7     8    1
     8     8     9    1
     9     9    10    1
    10    10    11    1
    11    11    12    1
    12    12    13    1
    13    13    14    1
    14    14    15    1
    15    15    16    1
    16    16    17    1
    17     1    18    1
    18     1    19    1
    19     1    20    1
    20     2    21    1
    21     2    22    1
    22     4    23    1
    23     4    24    1
    24     5    25    1
    25     5    26    1
    26     7    27    1
    27     7    28    1
    28     8    29    1
    29     8    30    1
    30    10    31    1
    31    10    32    1
    32    11    33    1
    33    11    34    1
    34    13    35    1
    35    13    36    1
    36    14    37    1
    37    14    38    1
    38    16    39    1
    39    16    40    1
    40    17    41    1
    41    17    42    1
    42    17    43    1
