@<TRIPOS>MOLECULE
*****
 43 42 0 0 0
SMALL
GASTEIGER

@<TRIPOS>ATOM
      1 C           1.0494   -0.0132    0.0802 C.3     1  UNL1       -0.0416
      2 C           2.5641    0.0211    0.1055 C.3     1  UNL1        0.0449
      3 O           3.0508   -0.9219   -0.8452 O.3     1  UNL1       -0.3778
      4 C           4.4766   -0.9431   -0.8732 C.3     1  UNL1        0.0710
      5 C           4.9486   -1.9615   -1.9022 C.3     1  UNL1        0.0711
      6 O           6.3752   -1.9749   -1.9210 O.3     1  UNL1       -0.3752
      7 C           6.8723   -2.9139   -2.8716 C.3     1  UNL1        0.0711
      8 C           8.3941   -2.8881   -2.8485 C.3     1  UNL1        0.0711
      9 O           8.8910   -3.8270   -3.7994 O.3     1  UNL1       -0.3752
     10 C          10.3162   -3.8410   -3.8176 C.3     1  UNL1        0.0711
     11 C          10.7912   -4.8580   -4.8460 C.3     1  UNL1        0.0711
     12 O          12.2164   -4.8732   -4.8647 O.3     1  UNL1       -0.3752
     13 C          12.7136   -5.8137   -5.8159 C.3     1  UNL1        0.0711
     14 C          14.2356   -5.7869   -5.7904 C.3     1  UNL1        0.0710
     15 O          14.7433   -6.7251   -6.7374 O.3     1  UNL1       -0.3778
     16 C          16.1681   -6.7332   -6.7457 C.3     1  UNL1        0.0449
     17 C          16.6339   -7.7486   -7.7689 C.3     1  UNL1       -0.0416
     18 H           0.6317    0.6980    0.7978 H       1  UNL1        0.0252
     19 H           0.6830   -1.0166    0.3213 H       1  UNL1        0.0252
     20 H           0.6755    0.2310   -0.9196 H       1  UNL1        0.0252
     21 H           2.9264   -0.2411    1.1057 H       1  UNL1        0.0557
     22 H           2.9186    1.0247   -0.1541 H       1  UNL1        0.0557
     23 H           4.8690   -1.2077    0.1163 H       1  UNL1        0.0583
     24 H           4.8634    0.0503   -1.1310 H       1  UNL1        0.0583
     25 H           4.5608   -1.6976   -2.8937 H       1  UNL1        0.0583
     26 H           4.5652   -2.9565   -1.6460 H       1  UNL1        0.0583
     27 H           6.5110   -2.6620   -3.8759 H       1  UNL1        0.0583
     28 H           6.5136   -3.9217   -2.6298 H       1  UNL1        0.0583
     29 H           8.7556   -3.1410   -1.8443 H       1  UNL1        0.0583
     30 H           8.7534   -1.8812   -3.0899 H       1  UNL1        0.0583
     31 H          10.7043   -4.1053   -2.8264 H       1  UNL1        0.0583
     32 H          10.7008   -2.8461   -4.0732 H       1  UNL1        0.0583
     33 H          10.4034   -4.5935   -5.8375 H       1  UNL1        0.0583
     34 H          10.4064   -5.8531   -4.5907 H       1  UNL1        0.0583
     35 H          12.3520   -5.5610   -6.8200 H       1  UNL1        0.0583
     36 H          12.3534   -6.8210   -5.5737 H       1  UNL1        0.0583
     37 H          14.5930   -6.0361   -4.7838 H       1  UNL1        0.0583
     38 H          14.5919   -4.7778   -6.0309 H       1  UNL1        0.0583
     39 H          16.5426   -7.0060   -5.7532 H       1  UNL1        0.0557
     40 H          16.5427   -5.7385   -7.0107 H       1  UNL1        0.0557
     41 H          16.2519   -8.7454   -7.5246 H       1  UNL1        0.0252
     42 H          17.7259   -7.7886   -7.8095 H       1  UNL1        0.0252
     43 H          16.2518   -7.4964   -8.7640 H       1  UNL1        0.0252
@<TRIPOS>BOND
     1     1     2    1
     2     2     3    1
     3     3     4    1
     4     4     5    1
     5     5     6    1
     6     6     7    1
     7     7     8    1
     8     8     9    1
     9     9    10    1
    10    10    11    1
    11    11    12    1
    12    12    13    1
    13    13    14    1
    14    14    15    1
    15    15    16    1
    16    16    17    1
    17     1    18    1
    18     1    19    1
    19     1    20    1
    20     2    21    1
    21     2    22    1
    22     4    23    1
    23     4    24    1
    24     5    25    1
    25     5    26    1
    26     7    27    1
    27     7    28    1
    28     8    29    1
    29     8    30    1
    30    10    31    1
    31    10    32    1
    32    11    33    1
    33    11    34    1
    34    13    35    1
    35    13    36    1
    36    14    37    1
    37    14    38    1
    38    16    39    1
    39    16    40    1
    40    17    41    1
    41    17    42    1
    42    17    43    1
